Version 4
SHEET 1 2788 772
WIRE 1536 -1024 1504 -1024
WIRE 1648 -1024 1616 -1024
WIRE 1696 -1024 1648 -1024
WIRE 1824 -1024 1824 -1056
WIRE 1824 -1024 1776 -1024
WIRE 1504 -976 1504 -1024
WIRE 1744 -848 1744 -896
WIRE 1648 -832 1648 -1024
WIRE 1712 -832 1648 -832
WIRE 2144 -816 1776 -816
WIRE 1712 -800 1360 -800
WIRE 1744 -752 1744 -784
WIRE 1520 -640 1488 -640
WIRE 1632 -640 1600 -640
WIRE 1680 -640 1632 -640
WIRE 1808 -640 1808 -672
WIRE 1808 -640 1760 -640
WIRE 1488 -592 1488 -640
WIRE 1728 -464 1728 -512
WIRE 1632 -448 1632 -640
WIRE 1696 -448 1632 -448
WIRE 2128 -432 1760 -432
WIRE 1360 -416 1360 -800
WIRE 1696 -416 1360 -416
WIRE 1728 -368 1728 -400
WIRE 2144 -272 2144 -816
WIRE 2544 -272 2144 -272
WIRE 2128 -256 2128 -432
WIRE 2544 -256 2128 -256
WIRE 2752 -256 2608 -256
WIRE 2544 -240 2128 -240
WIRE 2544 -224 2144 -224
WIRE 1536 -176 1504 -176
WIRE 1648 -176 1616 -176
WIRE 1696 -176 1648 -176
WIRE 1824 -176 1824 -208
WIRE 1824 -176 1776 -176
WIRE 1504 -128 1504 -176
WIRE 2544 -128 2544 -208
WIRE 2560 -128 2560 -208
WIRE 1264 -96 1024 -96
WIRE 1744 0 1744 -48
WIRE 1136 16 1136 -16
WIRE 1648 16 1648 -176
WIRE 1712 16 1648 16
WIRE 1024 32 1024 -96
WIRE 1104 32 1024 32
WIRE 2128 32 2128 -240
WIRE 2128 32 1776 32
WIRE 1264 48 1264 -96
WIRE 1264 48 1168 48
WIRE 1360 48 1360 -416
WIRE 1360 48 1264 48
WIRE 1712 48 1360 48
WIRE 144 64 0 64
WIRE 272 64 208 64
WIRE 464 64 368 64
WIRE 560 64 464 64
WIRE 688 64 560 64
WIRE 816 64 688 64
WIRE 960 64 896 64
WIRE 1104 64 960 64
WIRE 0 96 0 64
WIRE 464 96 464 64
WIRE 560 96 560 64
WIRE 688 96 688 64
WIRE 960 96 960 64
WIRE 1744 96 1744 64
WIRE 1136 112 1136 80
WIRE 352 192 352 112
WIRE 464 192 464 160
WIRE 464 192 352 192
WIRE 560 192 560 160
WIRE 688 192 688 160
WIRE 0 208 0 176
WIRE 352 208 352 192
WIRE 960 208 960 176
WIRE 352 320 352 288
WIRE 1520 336 1488 336
WIRE 1632 336 1600 336
WIRE 1680 336 1632 336
WIRE 1808 336 1808 304
WIRE 1808 336 1760 336
WIRE 1488 384 1488 336
WIRE 1728 512 1728 464
WIRE 1632 528 1632 336
WIRE 1696 528 1632 528
WIRE 2144 544 2144 -224
WIRE 2144 544 1760 544
WIRE 1360 560 1360 48
WIRE 1696 560 1360 560
WIRE 1728 608 1728 576
FLAG 0 208 0
FLAG 352 320 0
FLAG 560 192 0
FLAG 688 192 0
FLAG 960 208 0
FLAG 1136 112 0
FLAG 1136 -16 3V3
FLAG 1744 -48 3V3
FLAG 1744 96 0
FLAG 1504 -128 0
FLAG 1824 -208 3V3
FLAG 1728 464 3V3
FLAG 1728 608 0
FLAG 1488 384 0
FLAG 1808 304 3V3
FLAG 1728 -512 3V3
FLAG 1728 -368 0
FLAG 1488 -592 0
FLAG 1808 -672 3V3
FLAG 1744 -896 3V3
FLAG 1744 -752 0
FLAG 1504 -976 0
FLAG 1824 -1056 3V3
SYMBOL voltage 0 80 R0
SYMATTR InstName V1
SYMBOL SpecialFunctions\\varistor 240 80 R90
SYMATTR InstName A1
SYMBOL pmos 272 112 R270
SYMATTR InstName M1
SYMBOL res 336 192 R0
SYMATTR InstName R1
SYMATTR Value 100k
SYMBOL zener 480 160 R180
WINDOW 0 24 64 Left 2
WINDOW 3 24 0 Left 2
SYMATTR InstName D1
SYMBOL TVSdiode 544 96 R0
SYMATTR InstName D2
SYMBOL zener 704 160 R180
WINDOW 0 24 64 Left 2
WINDOW 3 24 0 Left 2
SYMATTR InstName D3
SYMBOL res 912 48 R90
WINDOW 0 0 56 VBottom 2
WINDOW 3 32 56 VTop 2
SYMATTR InstName R2
SYMATTR Value 100k
SYMBOL res 944 80 R0
SYMATTR InstName R3
SYMATTR Value 1Meg
SYMBOL OpAmps\\AD549 1136 -16 R0
SYMATTR InstName U1
SYMBOL Comparators\\LT1017 1744 32 R0
SYMATTR InstName U2
SYMBOL res 1632 -192 R90
WINDOW 0 0 56 VBottom 2
WINDOW 3 32 56 VTop 2
SYMATTR InstName R4
SYMBOL res 1792 -192 R90
WINDOW 0 0 56 VBottom 2
WINDOW 3 32 56 VTop 2
SYMATTR InstName R5
SYMBOL Comparators\\LT1017 1728 544 R0
SYMATTR InstName U3
SYMBOL res 1616 320 R90
WINDOW 0 0 56 VBottom 2
WINDOW 3 32 56 VTop 2
SYMATTR InstName R6
SYMBOL res 1776 320 R90
WINDOW 0 0 56 VBottom 2
WINDOW 3 32 56 VTop 2
SYMATTR InstName R7
SYMBOL Comparators\\LT1017 1728 -432 R0
SYMATTR InstName U4
SYMBOL res 1616 -656 R90
WINDOW 0 0 56 VBottom 2
WINDOW 3 32 56 VTop 2
SYMATTR InstName R8
SYMBOL res 1776 -656 R90
WINDOW 0 0 56 VBottom 2
WINDOW 3 32 56 VTop 2
SYMATTR InstName R9
SYMBOL Comparators\\LT1017 1744 -816 R0
SYMATTR InstName U5
SYMBOL res 1632 -1040 R90
WINDOW 0 0 56 VBottom 2
WINDOW 3 32 56 VTop 2
SYMATTR InstName R10
SYMBOL res 1792 -1040 R90
WINDOW 0 0 56 VBottom 2
WINDOW 3 32 56 VTop 2
SYMATTR InstName R11
SYMBOL Digital\\and 2576 -304 R0
SYMATTR InstName A2
TEXT 416 48 Left 0 ;Protect Vgs of PMOS
TEXT 544 -40 Left 2 ;Clamp input voltage at 30Vish
TEXT 1912 -880 Left 2 ;High if above 3V
TEXT 1872 -480 Left 2 ;High if above 4.5V
TEXT 1872 -8 Left 2 ;High if above 11V
TEXT 1888 504 Left 2 ;High if above 22V
TEXT 2528 -120 Left 2 ;Select Pins
TEXT 2704 -288 Left 2 ;Output
TEXT -8 -48 Left 0 ;Over current protection, also fuses when D3 draw s high current due to overvoltage
TEXT 504 232 Left 0 ;TVS diode for voltage spikes
TEXT 768 296 Left 2 ;Resistor divider to step down voltage from upto 3\n0V to between 0 and 3.3V
TEXT 952 -136 Left 2 ;Buffer to provide low impedance output
TEXT 192 -144 Left 2 ;Reverse polarity protection
