Version 4
SHEET 1 880 708
WIRE -592 96 -672 96
WIRE -336 96 -592 96
WIRE -192 96 -336 96
WIRE -48 96 -192 96
WIRE 176 112 16 112
WIRE 368 112 240 112
WIRE 400 112 368 112
WIRE -48 128 -112 128
WIRE -336 160 -336 96
WIRE -192 160 -192 96
WIRE -672 176 -672 96
WIRE 400 176 400 112
WIRE -336 272 -336 224
WIRE -192 272 -192 240
WIRE -192 272 -336 272
WIRE -112 272 -112 128
WIRE -112 272 -192 272
WIRE 400 304 400 256
WIRE -672 320 -672 256
WIRE -112 320 -112 272
WIRE 400 432 400 384
WIRE -112 464 -112 400
WIRE -624 512 -656 512
WIRE -496 512 -624 512
WIRE -368 512 -416 512
WIRE -256 512 -368 512
WIRE -176 512 -256 512
WIRE -656 544 -656 512
WIRE -368 576 -368 512
WIRE -256 576 -256 512
WIRE -112 672 -112 560
WIRE -656 688 -656 624
WIRE -368 688 -368 656
WIRE -256 688 -256 640
FLAG -112 672 0
FLAG -368 688 0
FLAG -256 688 0
FLAG 400 432 0
FLAG -624 512 Out_en
FLAG -672 320 0
FLAG -656 688 0
FLAG -592 96 Vin
FLAG 368 112 Vout
SYMBOL npn -176 464 R0
SYMATTR InstName Q1
SYMATTR Value Qmmbt3904tt1
SYMBOL Si4948BEY -16 112 R180
SYMATTR InstName U1
SYMBOL DI_BZT52C15S -336 192 R270
SYMATTR InstName U2
SYMBOL diode 176 128 R270
WINDOW 0 32 32 VTop 2
WINDOW 3 0 32 VBottom 2
SYMATTR InstName D1
SYMATTR Value STPS160U
SYMBOL res -208 144 R0
SYMATTR InstName R1
SYMATTR Value 100k
SYMBOL res -128 304 R0
SYMATTR InstName R2
SYMATTR Value 10k
SYMBOL res -400 496 R90
WINDOW 0 0 56 VBottom 2
WINDOW 3 32 56 VTop 2
SYMATTR InstName R3
SYMATTR Value 10k
SYMBOL res -384 560 R0
SYMATTR InstName R4
SYMATTR Value 100k
SYMBOL cap -272 576 R0
SYMATTR InstName C1
SYMATTR Value 100n
SYMBOL voltage -656 528 R0
WINDOW 123 0 0 Left 0
WINDOW 39 0 0 Left 0
SYMATTR InstName V1
SYMATTR Value 3.3
SYMBOL res 384 160 R0
SYMATTR InstName Rload
SYMATTR Value 37
SYMBOL voltage 400 288 R0
WINDOW 123 0 0 Left 0
WINDOW 39 0 0 Left 0
SYMATTR InstName V2
SYMATTR Value 0
SYMBOL voltage -672 160 R0
WINDOW 123 0 0 Left 0
WINDOW 39 0 0 Left 0
SYMATTR InstName V3
SYMATTR Value 24
TEXT 280 -112 Left 2 !.lib MMBT3904TT1.lib
TEXT 296 -64 Left 2 !.lib STPS160U.lib
TEXT 552 360 Left 2 !.tran 1
