Version 4
SHEET 1 880 680
WIRE -32 -32 -144 -32
WIRE 48 -32 -32 -32
WIRE 224 -32 48 -32
WIRE -144 0 -144 -32
WIRE -32 0 -32 -32
WIRE 224 48 224 -32
WIRE -144 96 -144 80
WIRE -32 96 -32 64
WIRE 48 160 48 -32
WIRE 96 160 48 160
WIRE 416 160 352 160
WIRE 512 160 416 160
WIRE 608 160 512 160
WIRE 416 176 416 160
WIRE 512 176 512 160
WIRE 416 272 416 240
WIRE 512 272 512 256
WIRE 224 352 224 272
WIRE 224 352 144 352
WIRE 144 368 144 352
WIRE 224 368 224 352
WIRE 144 464 144 432
WIRE 224 464 224 448
FLAG -144 96 0
FLAG 224 464 0
FLAG 512 272 0
FLAG 416 272 0
FLAG 144 464 0
FLAG -32 96 0
FLAG 608 160 Vout
SYMBOL PowerProducts\\LT3080 224 160 R0
SYMATTR InstName U1
SYMBOL voltage -144 -16 R0
SYMATTR InstName V1
SYMATTR Value 24V
SYMBOL res 208 352 R0
SYMATTR InstName R1
SYMATTR Value 2.2Meg
SYMBOL cap 400 176 R0
SYMATTR InstName C1
SYMATTR Value 2.2”
SYMBOL res 496 160 R0
SYMATTR InstName R2
SYMATTR Value 20k
SYMBOL cap 128 368 R0
SYMATTR InstName C2
SYMATTR Value 1”
SYMBOL cap -48 0 R0
SYMATTR InstName C3
SYMATTR Value 10”
